
#======================================================================
# CRYSTAL DATA
#----------------------------------------------------------------------
data_VESTA_phase_1

_chemical_name_common                  ' POSCAR_REV                           '
_cell_length_a                         8.985937
_cell_length_b                         8.742296
_cell_length_c                         37.942123
_cell_angle_alpha                      89.434662
_cell_angle_beta                       90.699638
_cell_angle_gamma                      89.874863
_cell_volume                           2980.271647
_space_group_name_H-M_alt              'P 1'
_space_group_IT_number                 1

loop_
_space_group_symop_operation_xyz
   'x, y, z'

loop_
   _atom_site_label
   _atom_site_occupancy
   _atom_site_fract_x
   _atom_site_fract_y
   _atom_site_fract_z
   _atom_site_adp_type
   _atom_site_U_iso_or_equiv
   _atom_site_type_symbol
   I1         1.0     0.809634     0.225441     0.016613    Uiso  ? I
   I2         1.0     0.744517     0.713370     0.014827    Uiso  ? I
   I3         1.0     0.102614     0.495453     0.084825    Uiso  ? I
   I4         1.0     0.471460     0.000278     0.084551    Uiso  ? I
   I5         1.0     0.745775     0.707299     0.156938    Uiso  ? I
   I6         1.0     0.831382     0.208702     0.157667    Uiso  ? I
   I7         1.0     0.247743     0.797151     0.178483    Uiso  ? I
   I8         1.0     0.333052     0.297175     0.178462    Uiso  ? I
   I9         1.0     0.603998     0.005899     0.249547    Uiso  ? I
   I10        1.0    -0.021227     0.505910     0.249625    Uiso  ? I
   I11        1.0     0.249670     0.791713     0.321622    Uiso  ? I
   I12        1.0     0.332369     0.291557     0.321084    Uiso  ? I
   I13        1.0     0.831423     0.206027     0.341838    Uiso  ? I
   I14        1.0     0.750409     0.703472     0.342049    Uiso  ? I
   I15        1.0     0.103191     0.484152     0.414788    Uiso  ? I
   I16        1.0     0.480714    -0.006734     0.414020    Uiso  ? I
   I17        1.0     0.839973     0.197956     0.490194    Uiso  ? I
   I18        1.0     0.760550     0.696618     0.482740    Uiso  ? I
   I19        1.0     0.246724     0.797294     0.504103    Uiso  ? I
   I20        1.0     0.351578     0.292100     0.503000    Uiso  ? I
   I21        1.0     0.585617     0.973333     0.580910    Uiso  ? I
   I22        1.0     0.001818     0.518674     0.581206    Uiso  ? I
   I23        1.0     0.239198     0.808303     0.662800    Uiso  ? I
   I24        1.0     0.325058     0.294766     0.661241    Uiso  ? I
   I25        1.0     0.834659     0.207785     0.680072    Uiso  ? I
   I26        1.0     0.733701     0.699897     0.672487    Uiso  ? I
   I27        1.0     0.041775     0.506746     0.750450    Uiso  ? I
   I28        1.0     0.515162    -0.011876     0.749766    Uiso  ? I
   I29        1.0     0.860140     0.182851     0.826959    Uiso  ? I
   I30        1.0     0.745247     0.688865     0.827852    Uiso  ? I
   I31        1.0     0.357154     0.306218     0.831815    Uiso  ? I
   I32        1.0     0.249846     0.798314     0.836530    Uiso  ? I
   I33        1.0    -0.001517     0.509886     0.918501    Uiso  ? I
   I34        1.0     0.586359     0.985293     0.918643    Uiso  ? I
   I35        1.0     0.231444     0.806846     0.993470    Uiso  ? I
   I36        1.0     0.316561     0.290048     0.989686    Uiso  ? I
   Pb1        1.0     0.532776     0.002801     0.002415    Uiso  ? Pb
   Pb2        1.0     0.035402     0.508442     0.002480    Uiso  ? Pb
   Pb3        1.0     0.538837     0.002505     0.167165    Uiso  ? Pb
   Pb4        1.0     0.039763     0.502800     0.167345    Uiso  ? Pb
   Pb5        1.0     0.042550     0.497693     0.332239    Uiso  ? Pb
   Pb6        1.0     0.541854    -0.002984     0.331705    Uiso  ? Pb
   Pb7        1.0     0.553605    -0.019499     0.496047    Uiso  ? Pb
   Pb8        1.0     0.051945     0.491283     0.497523    Uiso  ? Pb
   Pb9        1.0     0.038210     0.516857     0.664396    Uiso  ? Pb
   Pb10       1.0     0.549302     0.008566     0.664623    Uiso  ? Pb
   Pb11       1.0     0.561566    -0.007768     0.835137    Uiso  ? Pb
   Pb12       1.0     0.043870     0.496365     0.835927    Uiso  ? Pb
   Cs1        1.0     0.536794     0.469506     0.085099    Uiso  ? Cs
   Cs2        1.0     0.027967     0.969365     0.085341    Uiso  ? Cs
   Cs3        1.0     0.536006     0.536953     0.250164    Uiso  ? Cs
   Cs4        1.0     0.045618     0.037928     0.249879    Uiso  ? Cs
   Cs5        1.0     0.548762     0.458168     0.413072    Uiso  ? Cs
   Cs6        1.0     0.035502     0.963506     0.414579    Uiso  ? Cs
   C1         1.0     0.551342     0.543751     0.587417    Uiso  ? C
   C2         1.0     0.060142     0.036830     0.575295    Uiso  ? C
   C3         1.0     0.579374     0.530315     0.750870    Uiso  ? C
   C4         1.0     0.076092     0.952454     0.750653    Uiso  ? C
   C5         1.0     0.544013     0.536620     0.923765    Uiso  ? C
   C6         1.0     0.051418     0.030366     0.910656    Uiso  ? C
   N1         1.0     0.612486     0.451199     0.564711    Uiso  ? N
   N2         1.0     0.408877     0.576938     0.588725    Uiso  ? N
   N3         1.0     0.955300     0.076041     0.597114    Uiso  ? N
   N4         1.0     0.202054     0.065442     0.580139    Uiso  ? N
   N5         1.0     0.439599     0.574307     0.749883    Uiso  ? N
   N6         1.0     0.626946     0.389161     0.754598    Uiso  ? N
   N7         1.0     0.935617     0.911996     0.750150    Uiso  ? N
   N8         1.0     0.126160     0.093054     0.748881    Uiso  ? N
   N9         1.0     0.609249     0.444120     0.901697    Uiso  ? N
   N10        1.0     0.407583     0.589110     0.920011    Uiso  ? N
   N11        1.0     0.965315     0.071965     0.936529    Uiso  ? N
   N12        1.0     0.192699     0.065538     0.908119    Uiso  ? N
   H1         1.0     0.551569     0.398454     0.545244    Uiso  ? H
   H2         1.0     0.725676     0.438374     0.565326    Uiso  ? H
   H3         1.0     0.331687     0.531759     0.571924    Uiso  ? H
   H4         1.0     0.624397     0.597007     0.607054    Uiso  ? H
   H5         1.0     0.370564     0.647238     0.608021    Uiso  ? H
   H6         1.0     0.846380     0.050273     0.591232    Uiso  ? H
   H7         1.0     0.027961     0.976598     0.551278    Uiso  ? H
   H8         1.0    -0.024482     0.128102     0.620730    Uiso  ? H
   H9         1.0     0.277126     0.026186     0.562487    Uiso  ? H
   H10        1.0     0.241772     0.121889     0.601843    Uiso  ? H
   H11        1.0     0.351101     0.502424     0.752779    Uiso  ? H
   H12        1.0     0.417792     0.688265     0.746926    Uiso  ? H
   H13        1.0     0.558386     0.296852     0.757336    Uiso  ? H
   H14        1.0     0.663173     0.619150     0.748021    Uiso  ? H
   H15        1.0     0.738654     0.369104     0.755093    Uiso  ? H
   H16        1.0     0.910835     0.798536     0.751953    Uiso  ? H
   H17        1.0     0.849880     0.988055     0.747744    Uiso  ? H
   H18        1.0     0.158289     0.860809     0.752967    Uiso  ? H
   H19        1.0     0.058975     0.187105     0.746619    Uiso  ? H
   H20        1.0     0.238696     0.108987     0.749169    Uiso  ? H
   H21        1.0     0.556917     0.407760     0.879081    Uiso  ? H
   H22        1.0     0.719949     0.420339     0.905240    Uiso  ? H
   H23        1.0     0.342578     0.564849     0.898601    Uiso  ? H
   H24        1.0     0.607656     0.572852     0.946989    Uiso  ? H
   H25        1.0     0.362624     0.657016     0.938950    Uiso  ? H
   H26        1.0     0.854274     0.045100     0.935543    Uiso  ? H
   H27        1.0     0.002616     0.961573     0.889607    Uiso  ? H
   H28        1.0     0.002731     0.135573     0.957187    Uiso  ? H
   H29        1.0     0.250949     0.022835     0.887501    Uiso  ? H
   H30        1.0     0.247519     0.128766     0.926722    Uiso  ? H
