
#======================================================================
# CRYSTAL DATA
#----------------------------------------------------------------------
data_VESTA_phase_1

_chemical_name_common                  'mirror-relax                          '
_cell_length_a                         8.698100
_cell_length_b                         87.353203
_cell_length_c                         15.474400
_cell_angle_alpha                      90.000000
_cell_angle_beta                       90.000000
_cell_angle_gamma                      89.989098
_cell_volume                           11757.555372
_space_group_name_H-M_alt              'P 1'
_space_group_IT_number                 1

loop_
_space_group_symop_operation_xyz
   'x, y, z'

loop_
   _atom_site_label
   _atom_site_occupancy
   _atom_site_fract_x
   _atom_site_fract_y
   _atom_site_fract_z
   _atom_site_adp_type
   _atom_site_U_iso_or_equiv
   _atom_site_type_symbol
   I1         1.0     0.552034     0.078149     0.334924    Uiso  ? I
   I2         1.0     0.553612     0.160646     0.665192    Uiso  ? I
   I3         1.0     0.949196     0.132176     0.497594    Uiso  ? I
   I4         1.0     0.965581     0.047022     0.165842    Uiso  ? I
   I5         1.0     0.049693     0.090889     0.328045    Uiso  ? I
   I6         1.0     0.052431     0.173744     0.661601    Uiso  ? I
   I7         1.0     0.461745     0.037088     0.178095    Uiso  ? I
   I8         1.0     0.448520     0.119197     0.501674    Uiso  ? I
   I9         1.0     0.950347     0.168436     0.199096    Uiso  ? I
   I10        1.0     0.946216     0.086145     0.865752    Uiso  ? I
   I11        1.0     0.556233     0.039350     0.638037    Uiso  ? I
   I12        1.0     0.553900     0.123002     0.963993    Uiso  ? I
   I13        1.0     0.450658     0.165241     0.127425    Uiso  ? I
   I14        1.0     0.444039     0.081074     0.798912    Uiso  ? I
   I15        1.0     0.053326     0.126590     0.036096    Uiso  ? I
   I16        1.0     0.053378     0.044446     0.702823    Uiso  ? I
   I17        1.0     0.804028     0.166158     0.910929    Uiso  ? I
   I18        1.0     0.800508     0.083163     0.577864    Uiso  ? I
   I19        1.0     0.694991     0.125830     0.249439    Uiso  ? I
   I20        1.0     0.715099     0.042513     0.915668    Uiso  ? I
   I21        1.0     0.303654     0.167424     0.414968    Uiso  ? I
   I22        1.0     0.303881     0.082572     0.077127    Uiso  ? I
   I23        1.0     0.198245     0.042731     0.417164    Uiso  ? I
   I24        1.0     0.199196     0.125357     0.747835    Uiso  ? I
   I25        1.0     0.551739     0.243425     0.999278    Uiso  ? I
   I26        1.0     0.553861     0.326424     0.327039    Uiso  ? I
   I27        1.0     0.947275     0.298270     0.159320    Uiso  ? I
   I28        1.0     0.949029     0.215134     0.826563    Uiso  ? I
   I29        1.0     0.051535     0.256561     0.992229    Uiso  ? I
   I30        1.0     0.054995     0.339737     0.324587    Uiso  ? I
   I31        1.0     0.448443     0.201865     0.832466    Uiso  ? I
   I32        1.0     0.448201     0.285014     0.163935    Uiso  ? I
   I33        1.0     0.950758     0.334871     0.861381    Uiso  ? I
   I34        1.0     0.948181     0.251770     0.530442    Uiso  ? I
   I35        1.0     0.551182     0.207063     0.291630    Uiso  ? I
   I36        1.0     0.550741     0.289857     0.625874    Uiso  ? I
   I37        1.0     0.449436     0.331446     0.793039    Uiso  ? I
   I38        1.0     0.448883     0.248363     0.460263    Uiso  ? I
   I39        1.0     0.051017     0.293124     0.698128    Uiso  ? I
   I40        1.0     0.051385     0.210276     0.363640    Uiso  ? I
   I41        1.0     0.802539     0.332634     0.573930    Uiso  ? I
   I42        1.0     0.804282     0.249856     0.244670    Uiso  ? I
   I43        1.0     0.696020     0.291834     0.912289    Uiso  ? I
   I44        1.0     0.697135     0.208582     0.580064    Uiso  ? I
   I45        1.0     0.302666     0.333789     0.077882    Uiso  ? I
   I46        1.0     0.303547     0.250405     0.747228    Uiso  ? I
   I47        1.0     0.195681     0.207891     0.076847    Uiso  ? I
   I48        1.0     0.196877     0.291523     0.410654    Uiso  ? I
   I49        1.0     0.548398     0.409658     0.658782    Uiso  ? I
   I50        1.0     0.491374     0.000116     0.997125    Uiso  ? I
   I51        1.0     0.958330     0.462981     0.813715    Uiso  ? I
   I52        1.0     0.945025     0.381394     0.487167    Uiso  ? I
   I53        1.0     0.051101     0.421888     0.653400    Uiso  ? I
   I54        1.0     0.010489     0.999991     0.999161    Uiso  ? I
   I55        1.0     0.447223     0.367838     0.490386    Uiso  ? I
   I56        1.0     0.464652     0.452998     0.822438    Uiso  ? I
   I57        1.0     0.967878     0.000054     0.520387    Uiso  ? I
   I58        1.0     0.946296     0.419222     0.189161    Uiso  ? I
   I59        1.0     0.550326     0.373767     0.953024    Uiso  ? I
   I60        1.0     0.547472     0.456888     0.294733    Uiso  ? I
   I61        1.0     0.477659    -0.000005     0.475521    Uiso  ? I
   I62        1.0     0.448922     0.415254     0.126675    Uiso  ? I
   I63        1.0     0.062874     0.463479     0.353622    Uiso  ? I
   I64        1.0     0.049621     0.377142     0.024956    Uiso  ? I
   I65        1.0     0.770487    -0.000001     0.252067    Uiso  ? I
   I66        1.0     0.802050     0.417510     0.910064    Uiso  ? I
   I67        1.0     0.723957     0.459885     0.574297    Uiso  ? I
   I68        1.0     0.699386     0.375003     0.241309    Uiso  ? I
   I69        1.0     0.276817    -0.000045     0.751665    Uiso  ? I
   I70        1.0     0.299446     0.417429     0.411235    Uiso  ? I
   I71        1.0     0.196485     0.374111     0.738521    Uiso  ? I
   I72        1.0     0.215590     0.458072     0.072649    Uiso  ? I
   I73        1.0     0.552433     0.922130     0.335530    Uiso  ? I
   I74        1.0     0.553066     0.839366     0.665115    Uiso  ? I
   I75        1.0     0.948551     0.867879     0.497395    Uiso  ? I
   I76        1.0     0.964821     0.952960     0.165258    Uiso  ? I
   I77        1.0     0.049800     0.909131     0.328168    Uiso  ? I
   I78        1.0     0.052325     0.826318     0.661218    Uiso  ? I
   I79        1.0     0.458514     0.963149     0.177241    Uiso  ? I
   I80        1.0     0.448359     0.880867     0.501565    Uiso  ? I
   I81        1.0     0.949388     0.831451     0.199140    Uiso  ? I
   I82        1.0     0.946251     0.913861     0.865925    Uiso  ? I
   I83        1.0     0.556212     0.960633     0.637749    Uiso  ? I
   I84        1.0     0.552729     0.876862     0.964146    Uiso  ? I
   I85        1.0     0.450032     0.834714     0.127369    Uiso  ? I
   I86        1.0     0.444103     0.918959     0.799427    Uiso  ? I
   I87        1.0     0.052554     0.873401     0.036122    Uiso  ? I
   I88        1.0     0.053069     0.955593     0.702887    Uiso  ? I
   I89        1.0     0.804558     0.833809     0.911275    Uiso  ? I
   I90        1.0     0.800607     0.916725     0.578660    Uiso  ? I
   I91        1.0     0.694864     0.874202     0.249466    Uiso  ? I
   I92        1.0     0.714545     0.957680     0.915237    Uiso  ? I
   I93        1.0     0.303387     0.832557     0.415273    Uiso  ? I
   I94        1.0     0.304600     0.917364     0.077825    Uiso  ? I
   I95        1.0     0.197973     0.957294     0.417051    Uiso  ? I
   I96        1.0     0.199013     0.874808     0.747575    Uiso  ? I
   I97        1.0     0.551055     0.756511     0.999548    Uiso  ? I
   I98        1.0     0.553917     0.673597     0.327297    Uiso  ? I
   I99        1.0     0.947013     0.701667     0.159539    Uiso  ? I
   I100       1.0     0.948542     0.784897     0.826555    Uiso  ? I
   I101       1.0     0.051317     0.743486     0.992786    Uiso  ? I
   I102       1.0     0.055694     0.660236     0.324708    Uiso  ? I
   I103       1.0     0.448208     0.798171     0.832729    Uiso  ? I
   I104       1.0     0.448389     0.714988     0.164038    Uiso  ? I
   I105       1.0     0.951800     0.665048     0.861396    Uiso  ? I
   I106       1.0     0.948792     0.748483     0.532320    Uiso  ? I
   I107       1.0     0.551281     0.792925     0.291704    Uiso  ? I
   I108       1.0     0.550109     0.710012     0.626362    Uiso  ? I
   I109       1.0     0.450097     0.668452     0.793105    Uiso  ? I
   I110       1.0     0.449493     0.751645     0.460556    Uiso  ? I
   I111       1.0     0.050422     0.706915     0.697990    Uiso  ? I
   I112       1.0     0.051483     0.789716     0.363687    Uiso  ? I
   I113       1.0     0.803256     0.667313     0.574304    Uiso  ? I
   I114       1.0     0.804670     0.749873     0.245857    Uiso  ? I
   I115       1.0     0.696505     0.708017     0.912902    Uiso  ? I
   I116       1.0     0.696676     0.791446     0.580030    Uiso  ? I
   I117       1.0     0.302549     0.666158     0.078280    Uiso  ? I
   I118       1.0     0.303949     0.749601     0.747337    Uiso  ? I
   I119       1.0     0.195452     0.792095     0.077035    Uiso  ? I
   I120       1.0     0.197374     0.708684     0.410311    Uiso  ? I
   I121       1.0     0.548402     0.590208     0.658774    Uiso  ? I
   I122       1.0     0.512808     0.499893     0.984503    Uiso  ? I
   I123       1.0     0.959180     0.537014     0.813690    Uiso  ? I
   I124       1.0     0.944875     0.618551     0.487273    Uiso  ? I
   I125       1.0     0.051822     0.578144     0.654782    Uiso  ? I
   I126       1.0     0.991326     0.500045     0.990539    Uiso  ? I
   I127       1.0     0.447827     0.632122     0.490516    Uiso  ? I
   I128       1.0     0.465004     0.546855     0.821782    Uiso  ? I
   I129       1.0     0.946180     0.580704     0.189182    Uiso  ? I
   I130       1.0     0.551341     0.626159     0.953245    Uiso  ? I
   I131       1.0     0.548051     0.543074     0.294597    Uiso  ? I
   I132       1.0     0.447181     0.500069     0.465217    Uiso  ? I
   I133       1.0     0.448966     0.584893     0.126868    Uiso  ? I
   I134       1.0     0.063128     0.536434     0.352064    Uiso  ? I
   I135       1.0     0.050488     0.622744     0.024728    Uiso  ? I
   I136       1.0     0.760420     0.499942     0.224389    Uiso  ? I
   I137       1.0     0.801355     0.582469     0.909991    Uiso  ? I
   I138       1.0     0.725193     0.540139     0.573992    Uiso  ? I
   I139       1.0     0.699686     0.624889     0.241898    Uiso  ? I
   I140       1.0     0.256981     0.500099     0.730036    Uiso  ? I
   I141       1.0     0.299160     0.582489     0.411562    Uiso  ? I
   I142       1.0     0.198345     0.625814     0.738881    Uiso  ? I
   I143       1.0     0.217515     0.542221     0.071571    Uiso  ? I
   Cs1        1.0     0.740836     0.039703     0.407258    Uiso  ? Cs
   Cs2        1.0     0.736691     0.121626     0.733457    Uiso  ? Cs
   Cs3        1.0     0.762790     0.170780     0.427452    Uiso  ? Cs
   Cs4        1.0     0.767374     0.086441     0.097701    Uiso  ? Cs
   Cs5        1.0     0.238412     0.129547     0.264353    Uiso  ? Cs
   Cs6        1.0     0.239448     0.042917     0.933403    Uiso  ? Cs
   Cs7        1.0     0.263331     0.162942     0.899773    Uiso  ? Cs
   Cs8        1.0     0.262492     0.080458     0.569271    Uiso  ? Cs
   Cs9        1.0     0.737608     0.204370     0.063457    Uiso  ? Cs
   Cs10       1.0     0.736982     0.287721     0.396681    Uiso  ? Cs
   Cs11       1.0     0.762253     0.337215     0.089159    Uiso  ? Cs
   Cs12       1.0     0.762227     0.253858     0.760569    Uiso  ? Cs
   Cs13       1.0     0.237600     0.295491     0.926888    Uiso  ? Cs
   Cs14       1.0     0.237616     0.212324     0.593720    Uiso  ? Cs
   Cs15       1.0     0.262745     0.329207     0.563145    Uiso  ? Cs
   Cs16       1.0     0.262709     0.246207     0.230335    Uiso  ? Cs
   Cs17       1.0     0.736676     0.370590     0.724709    Uiso  ? Cs
   Cs18       1.0     0.735283     0.456857     0.058243    Uiso  ? Cs
   Cs19       1.0     0.763341     0.999993     0.760467    Uiso  ? Cs
   Cs20       1.0     0.764327     0.420734     0.418999    Uiso  ? Cs
   Cs21       1.0     0.260523     0.459037     0.580586    Uiso  ? Cs
   Cs22       1.0     0.235595     0.378849     0.254849    Uiso  ? Cs
   Cs23       1.0     0.230259     0.000163     0.255093    Uiso  ? Cs
   Cs24       1.0     0.266246     0.413420     0.893200    Uiso  ? Cs
   Cs25       1.0     0.741063     0.960487     0.406922    Uiso  ? Cs
   Cs26       1.0     0.735867     0.878380     0.733859    Uiso  ? Cs
   Cs27       1.0     0.762530     0.829219     0.427492    Uiso  ? Cs
   Cs28       1.0     0.767049     0.913475     0.097971    Uiso  ? Cs
   Cs29       1.0     0.238182     0.870417     0.264362    Uiso  ? Cs
   Cs30       1.0     0.239115     0.957093     0.933371    Uiso  ? Cs
   Cs31       1.0     0.263110     0.837121     0.899604    Uiso  ? Cs
   Cs32       1.0     0.262317     0.919567     0.569727    Uiso  ? Cs
   Cs33       1.0     0.737341     0.795605     0.062963    Uiso  ? Cs
   Cs34       1.0     0.737991     0.712255     0.397940    Uiso  ? Cs
   Cs35       1.0     0.763099     0.662729     0.089051    Uiso  ? Cs
   Cs36       1.0     0.762261     0.746075     0.761324    Uiso  ? Cs
   Cs37       1.0     0.237993     0.704513     0.926755    Uiso  ? Cs
   Cs38       1.0     0.237257     0.787758     0.593932    Uiso  ? Cs
   Cs39       1.0     0.263144     0.670793     0.563279    Uiso  ? Cs
   Cs40       1.0     0.263422     0.753805     0.230625    Uiso  ? Cs
   Cs41       1.0     0.738046     0.629306     0.724683    Uiso  ? Cs
   Cs42       1.0     0.736191     0.543086     0.058182    Uiso  ? Cs
   Cs43       1.0     0.722901     0.500025     0.739837    Uiso  ? Cs
   Cs44       1.0     0.764204     0.579283     0.419026    Uiso  ? Cs
   Cs45       1.0     0.260802     0.540992     0.580103    Uiso  ? Cs
   Cs46       1.0     0.235234     0.621126     0.255051    Uiso  ? Cs
   Cs47       1.0     0.268356     0.499986     0.220392    Uiso  ? Cs
   Cs48       1.0     0.265955     0.586381     0.893534    Uiso  ? Cs
   Pb1        1.0     0.252083     0.063881     0.250388    Uiso  ? Pb
   Pb2        1.0     0.251070     0.146586     0.582149    Uiso  ? Pb
   Pb3        1.0     0.745082     0.021898     0.082280    Uiso  ? Pb
   Pb4        1.0     0.750318     0.105252     0.415900    Uiso  ? Pb
   Pb5        1.0     0.248949     0.021882     0.584868    Uiso  ? Pb
   Pb6        1.0     0.250361     0.104298     0.914353    Uiso  ? Pb
   Pb7        1.0     0.751449     0.145797     0.080074    Uiso  ? Pb
   Pb8        1.0     0.751098     0.063121     0.748447    Uiso  ? Pb
   Pb9        1.0     0.250788     0.229231     0.912654    Uiso  ? Pb
   Pb10       1.0     0.250189     0.312301     0.243614    Uiso  ? Pb
   Pb11       1.0     0.750669     0.187839     0.747267    Uiso  ? Pb
   Pb12       1.0     0.750692     0.270794     0.078635    Uiso  ? Pb
   Pb13       1.0     0.250354     0.187653     0.245740    Uiso  ? Pb
   Pb14       1.0     0.249769     0.270772     0.578323    Uiso  ? Pb
   Pb15       1.0     0.750220     0.312379     0.744265    Uiso  ? Pb
   Pb16       1.0     0.749936     0.229172     0.412389    Uiso  ? Pb
   Pb17       1.0     0.249524     0.394703     0.572182    Uiso  ? Pb
   Pb18       1.0     0.242916     0.478190     0.904247    Uiso  ? Pb
   Pb19       1.0     0.751607     0.353630     0.407265    Uiso  ? Pb
   Pb20       1.0     0.753204     0.436496     0.737138    Uiso  ? Pb
   Pb21       1.0     0.251099     0.354284     0.909965    Uiso  ? Pb
   Pb22       1.0     0.250168     0.438196     0.243269    Uiso  ? Pb
   Pb23       1.0     0.751112     0.480595     0.401042    Uiso  ? Pb
   Pb24       1.0     0.747939     0.396181     0.075615    Uiso  ? Pb
   Pb25       1.0     0.251756     0.936189     0.250709    Uiso  ? Pb
   Pb26       1.0     0.250795     0.853521     0.582134    Uiso  ? Pb
   Pb27       1.0     0.744247     0.978116     0.082507    Uiso  ? Pb
   Pb28       1.0     0.749925     0.894831     0.415904    Uiso  ? Pb
   Pb29       1.0     0.248890     0.978121     0.584810    Uiso  ? Pb
   Pb30       1.0     0.250025     0.895755     0.915132    Uiso  ? Pb
   Pb31       1.0     0.750920     0.854125     0.080463    Uiso  ? Pb
   Pb32       1.0     0.751062     0.936910     0.748775    Uiso  ? Pb
   Pb33       1.0     0.250346     0.770792     0.912659    Uiso  ? Pb
   Pb34       1.0     0.250281     0.687740     0.243819    Uiso  ? Pb
   Pb35       1.0     0.750392     0.812236     0.747188    Uiso  ? Pb
   Pb36       1.0     0.750794     0.729172     0.078869    Uiso  ? Pb
   Pb37       1.0     0.250256     0.812317     0.245988    Uiso  ? Pb
   Pb38       1.0     0.249898     0.729280     0.578665    Uiso  ? Pb
   Pb39       1.0     0.750434     0.687559     0.744678    Uiso  ? Pb
   Pb40       1.0     0.750080     0.770813     0.412510    Uiso  ? Pb
   Pb41       1.0     0.249908     0.605271     0.572350    Uiso  ? Pb
   Pb42       1.0     0.243562     0.521796     0.904225    Uiso  ? Pb
   Pb43       1.0     0.751927     0.646414     0.407376    Uiso  ? Pb
   Pb44       1.0     0.753779     0.563461     0.737313    Uiso  ? Pb
   Pb45       1.0     0.252047     0.645609     0.910532    Uiso  ? Pb
   Pb46       1.0     0.250525     0.561803     0.243290    Uiso  ? Pb
   Pb47       1.0     0.751246     0.519378     0.401080    Uiso  ? Pb
   Pb48       1.0     0.748186     0.603783     0.075744    Uiso  ? Pb
