
#======================================================================
# CRYSTAL DATA
#----------------------------------------------------------------------
data_VESTA_phase_1

_chemical_name_common                  'CONTCAR                               '
_cell_length_a                         8.698109
_cell_length_b                         87.353188
_cell_length_c                         15.474415
_cell_angle_alpha                      90.000000
_cell_angle_beta                       90.000000
_cell_angle_gamma                      89.989098
_cell_volume                           11757.576514
_space_group_name_H-M_alt              'P 1'
_space_group_IT_number                 1

loop_
_space_group_symop_operation_xyz
   'x, y, z'

loop_
   _atom_site_label
   _atom_site_occupancy
   _atom_site_fract_x
   _atom_site_fract_y
   _atom_site_fract_z
   _atom_site_adp_type
   _atom_site_U_iso_or_equiv
   _atom_site_type_symbol
   I1         1.0     0.552498     0.078023     0.334672    Uiso  ? I
   I2         1.0     0.553321     0.160630     0.664558    Uiso  ? I
   I3         1.0     0.948488     0.131875     0.499370    Uiso  ? I
   I4         1.0     0.966368     0.046811     0.166448    Uiso  ? I
   I5         1.0     0.049986     0.090771     0.329419    Uiso  ? I
   I6         1.0     0.051653     0.173549     0.661413    Uiso  ? I
   I7         1.0     0.463043     0.037193     0.177769    Uiso  ? I
   I8         1.0     0.448786     0.119173     0.501247    Uiso  ? I
   I9         1.0     0.949142     0.168815     0.196761    Uiso  ? I
   I10        1.0     0.943794     0.086462     0.865807    Uiso  ? I
   I11        1.0     0.556639     0.039431     0.638883    Uiso  ? I
   I12        1.0     0.555805     0.122650     0.964585    Uiso  ? I
   I13        1.0     0.450111     0.164905     0.128384    Uiso  ? I
   I14        1.0     0.441323     0.080621     0.799517    Uiso  ? I
   I15        1.0     0.054448     0.126685     0.035620    Uiso  ? I
   I16        1.0     0.053536     0.044446     0.704250    Uiso  ? I
   I17        1.0     0.800893     0.166374     0.911264    Uiso  ? I
   I18        1.0     0.799171     0.083134     0.578655    Uiso  ? I
   I19        1.0     0.699172     0.126097     0.250220    Uiso  ? I
   I20        1.0     0.715363     0.042488     0.916523    Uiso  ? I
   I21        1.0     0.301626     0.167112     0.414201    Uiso  ? I
   I22        1.0     0.301571     0.082584     0.077922    Uiso  ? I
   I23        1.0     0.201143     0.042544     0.417087    Uiso  ? I
   I24        1.0     0.201886     0.125218     0.748185    Uiso  ? I
   I25        1.0     0.551634     0.243683     0.997070    Uiso  ? I
   I26        1.0     0.550873     0.326541     0.327408    Uiso  ? I
   I27        1.0     0.947794     0.298007     0.158857    Uiso  ? I
   I28        1.0     0.948502     0.215012     0.827012    Uiso  ? I
   I29        1.0     0.051860     0.256428    -0.007936    Uiso  ? I
   I30        1.0     0.053216     0.339485     0.324936    Uiso  ? I
   I31        1.0     0.448020     0.202022     0.830733    Uiso  ? I
   I32        1.0     0.448942     0.285015     0.162810    Uiso  ? I
   I33        1.0     0.949445     0.335052     0.861368    Uiso  ? I
   I34        1.0     0.949960     0.251661     0.530099    Uiso  ? I
   I35        1.0     0.551950     0.206709     0.293598    Uiso  ? I
   I36        1.0     0.552107     0.289730     0.626417    Uiso  ? I
   I37        1.0     0.448724     0.331136     0.792821    Uiso  ? I
   I38        1.0     0.449544     0.248414     0.459029    Uiso  ? I
   I39        1.0     0.051583     0.293296     0.695967    Uiso  ? I
   I40        1.0     0.052309     0.210339     0.363255    Uiso  ? I
   I41        1.0     0.800555     0.332864     0.574982    Uiso  ? I
   I42        1.0     0.804734     0.249797     0.243784    Uiso  ? I
   I43        1.0     0.698475     0.291873     0.911960    Uiso  ? I
   I44        1.0     0.697679     0.208771     0.579577    Uiso  ? I
   I45        1.0     0.300524     0.333629     0.078043    Uiso  ? I
   I46        1.0     0.304600     0.249970     0.744380    Uiso  ? I
   I47        1.0     0.199141     0.208089     0.077029    Uiso  ? I
   I48        1.0     0.196990     0.291309     0.409885    Uiso  ? I
   I49        1.0     0.549947     0.409215     0.660454    Uiso  ? I
   I50        1.0     0.492462     0.000053     0.996785    Uiso  ? I
   I51        1.0     0.958655     0.463018     0.812459    Uiso  ? I
   I52        1.0     0.948258     0.380821     0.488347    Uiso  ? I
   I53        1.0     0.051502     0.422067     0.653774    Uiso  ? I
   I54        1.0     0.011297    -0.000189    -0.000165    Uiso  ? I
   I55        1.0     0.448330     0.368129     0.490499    Uiso  ? I
   I56        1.0     0.463699     0.453071     0.822970    Uiso  ? I
   I57        1.0     0.969826     0.000014     0.520554    Uiso  ? I
   I58        1.0     0.942863     0.419040     0.190145    Uiso  ? I
   I59        1.0     0.553693     0.373318     0.953428    Uiso  ? I
   I60        1.0     0.553674     0.455580     0.284996    Uiso  ? I
   I61        1.0     0.478350    -0.000021     0.477491    Uiso  ? I
   I62        1.0     0.443640     0.413660     0.122555    Uiso  ? I
   I63        1.0     0.056002     0.460487     0.350585    Uiso  ? I
   I64        1.0     0.054208     0.377222     0.024611    Uiso  ? I
   I65        1.0     0.769502     0.000021     0.252947    Uiso  ? I
   I66        1.0     0.802256     0.417401     0.911125    Uiso  ? I
   I67        1.0     0.700034     0.457515     0.572414    Uiso  ? I
   I68        1.0     0.700664     0.374953     0.241652    Uiso  ? I
   I69        1.0     0.275484     0.000020     0.752907    Uiso  ? I
   I70        1.0     0.300545     0.416809     0.410511    Uiso  ? I
   I71        1.0     0.197895     0.373881     0.738894    Uiso  ? I
   I72        1.0     0.213384     0.457632     0.073491    Uiso  ? I
   I73        1.0     0.551502     0.922067     0.335744    Uiso  ? I
   I74        1.0     0.553216     0.839485     0.664581    Uiso  ? I
   I75        1.0     0.948330     0.868129     0.499019    Uiso  ? I
   I76        1.0     0.963699     0.953071     0.166548    Uiso  ? I
   I77        1.0     0.049947     0.909215     0.329064    Uiso  ? I
   I78        1.0     0.050873     0.826541     0.662110    Uiso  ? I
   I79        1.0     0.458655     0.963018     0.177059    Uiso  ? I
   I80        1.0     0.448258     0.880821     0.501171    Uiso  ? I
   I81        1.0     0.948724     0.831136     0.196697    Uiso  ? I
   I82        1.0     0.943640     0.913660     0.866962    Uiso  ? I
   I83        1.0     0.556002     0.960487     0.638932    Uiso  ? I
   I84        1.0     0.554208     0.877222     0.964907    Uiso  ? I
   I85        1.0     0.449445     0.835052     0.128150    Uiso  ? I
   I86        1.0     0.442863     0.919040     0.799373    Uiso  ? I
   I87        1.0     0.053693     0.873317     0.036090    Uiso  ? I
   I88        1.0     0.053674     0.955580     0.704522    Uiso  ? I
   I89        1.0     0.800524     0.833629     0.911475    Uiso  ? I
   I90        1.0     0.800545     0.916809     0.579006    Uiso  ? I
   I91        1.0     0.697895     0.873881     0.250624    Uiso  ? I
   I92        1.0     0.713384     0.957632     0.916027    Uiso  ? I
   I93        1.0     0.300555     0.832864     0.414536    Uiso  ? I
   I94        1.0     0.302256     0.917401     0.078393    Uiso  ? I
   I95        1.0     0.200034     0.957515     0.417103    Uiso  ? I
   I96        1.0     0.200664     0.874953     0.747866    Uiso  ? I
   I97        1.0     0.551860     0.756428     0.997453    Uiso  ? I
   I98        1.0     0.551653     0.673549     0.328105    Uiso  ? I
   I99        1.0     0.948020     0.702022     0.158785    Uiso  ? I
   I100       1.0     0.948942     0.785015     0.826707    Uiso  ? I
   I101       1.0     0.051634     0.743683    -0.007553    Uiso  ? I
   I102       1.0     0.053321     0.660630     0.324959    Uiso  ? I
   I103       1.0     0.447794     0.798007     0.830661    Uiso  ? I
   I104       1.0     0.448502     0.715012     0.162506    Uiso  ? I
   I105       1.0     0.950111     0.664905     0.861134    Uiso  ? I
   I106       1.0     0.949544     0.748414     0.530488    Uiso  ? I
   I107       1.0     0.551583     0.793296     0.293551    Uiso  ? I
   I108       1.0     0.552309     0.710339     0.626263    Uiso  ? I
   I109       1.0     0.449142     0.668815     0.792757    Uiso  ? I
   I110       1.0     0.449960     0.751661     0.459419    Uiso  ? I
   I111       1.0     0.051950     0.706709     0.695920    Uiso  ? I
   I112       1.0     0.052107     0.789730     0.363101    Uiso  ? I
   I113       1.0     0.801626     0.667112     0.575317    Uiso  ? I
   I114       1.0     0.804600     0.749970     0.245138    Uiso  ? I
   I115       1.0     0.699141     0.708089     0.912488    Uiso  ? I
   I116       1.0     0.696990     0.791309     0.579633    Uiso  ? I
   I117       1.0     0.300893     0.666374     0.078253    Uiso  ? I
   I118       1.0     0.304734     0.749797     0.745734    Uiso  ? I
   I119       1.0     0.198475     0.791873     0.077558    Uiso  ? I
   I120       1.0     0.197679     0.708771     0.409940    Uiso  ? I
   I121       1.0     0.549986     0.590771     0.660098    Uiso  ? I
   I122       1.0     0.511297     0.499811     0.989682    Uiso  ? I
   I123       1.0     0.963043     0.537193     0.811749    Uiso  ? I
   I124       1.0     0.948786     0.619173     0.488271    Uiso  ? I
   I125       1.0     0.052498     0.578023     0.654845    Uiso  ? I
   I126       1.0    -0.007538     0.500053    -0.007268    Uiso  ? I
   I127       1.0     0.448488     0.631875     0.490148    Uiso  ? I
   I128       1.0     0.466368     0.546811     0.823070    Uiso  ? I
   I129       1.0     0.978350     0.499979     0.512027    Uiso  ? I
   I130       1.0     0.941323     0.580621     0.190001    Uiso  ? I
   I131       1.0     0.554448     0.626685     0.953898    Uiso  ? I
   I132       1.0     0.553536     0.544446     0.285268    Uiso  ? I
   I133       1.0     0.469826     0.500014     0.468963    Uiso  ? I
   I134       1.0     0.443794     0.586462     0.123711    Uiso  ? I
   I135       1.0     0.056639     0.539432     0.350634    Uiso  ? I
   I136       1.0     0.055805     0.622650     0.024933    Uiso  ? I
   I137       1.0     0.775484     0.500020     0.236610    Uiso  ? I
   I138       1.0     0.801571     0.582584     0.911596    Uiso  ? I
   I139       1.0     0.701143     0.542544     0.572430    Uiso  ? I
   I140       1.0     0.701886     0.625218     0.241333    Uiso  ? I
   I141       1.0     0.269502     0.500021     0.736570    Uiso  ? I
   I142       1.0     0.299171     0.583134     0.410863    Uiso  ? I
   I143       1.0     0.199172     0.626097     0.739298    Uiso  ? I
   I144       1.0     0.215363     0.542488     0.072995    Uiso  ? I
   Cs1        1.0     0.742944     0.039807     0.408145    Uiso  ? Cs
   Cs2        1.0     0.737553     0.121841     0.734324    Uiso  ? Cs
   Cs3        1.0     0.762890     0.170439     0.426664    Uiso  ? Cs
   Cs4        1.0     0.765749     0.086238     0.098134    Uiso  ? Cs
   Cs5        1.0     0.239202     0.129256     0.263627    Uiso  ? Cs
   Cs6        1.0     0.240062     0.042817     0.934637    Uiso  ? Cs
   Cs7        1.0     0.261818     0.163150     0.900560    Uiso  ? Cs
   Cs8        1.0     0.261300     0.080574     0.569835    Uiso  ? Cs
   Cs9        1.0     0.738474     0.204806     0.064107    Uiso  ? Cs
   Cs10       1.0     0.738581     0.287931     0.397102    Uiso  ? Cs
   Cs11       1.0     0.761400     0.336933     0.089084    Uiso  ? Cs
   Cs12       1.0     0.763526     0.253665     0.759306    Uiso  ? Cs
   Cs13       1.0     0.238321     0.295231     0.925539    Uiso  ? Cs
   Cs14       1.0     0.239401     0.212081     0.592077    Uiso  ? Cs
   Cs15       1.0     0.262026     0.329584     0.562978    Uiso  ? Cs
   Cs16       1.0     0.263465     0.246310     0.229961    Uiso  ? Cs
   Cs17       1.0     0.738645     0.370626     0.725766    Uiso  ? Cs
   Cs18       1.0     0.738861     0.456944     0.054589    Uiso  ? Cs
   Cs19       1.0     0.762660    -0.000029     0.759531    Uiso  ? Cs
   Cs20       1.0     0.761424     0.419424     0.419631    Uiso  ? Cs
   Cs21       1.0     0.241445     0.460363     0.581608    Uiso  ? Cs
   Cs22       1.0     0.237171     0.378223     0.255077    Uiso  ? Cs
   Cs23       1.0     0.230624     0.000160     0.256181    Uiso  ? Cs
   Cs24       1.0     0.265464     0.413485     0.890387    Uiso  ? Cs
   Cs25       1.0     0.741445     0.960363     0.407910    Uiso  ? Cs
   Cs26       1.0     0.737171     0.878223     0.734440    Uiso  ? Cs
   Cs27       1.0     0.762026     0.829584     0.426539    Uiso  ? Cs
   Cs28       1.0     0.765464     0.913485     0.099131    Uiso  ? Cs
   Cs29       1.0     0.238645     0.870626     0.263752    Uiso  ? Cs
   Cs30       1.0     0.238861     0.956944     0.934929    Uiso  ? Cs
   Cs31       1.0     0.261400     0.836933     0.900433    Uiso  ? Cs
   Cs32       1.0     0.261424     0.919424     0.569887    Uiso  ? Cs
   Cs33       1.0     0.738321     0.795231     0.063979    Uiso  ? Cs
   Cs34       1.0     0.739401     0.712081     0.397441    Uiso  ? Cs
   Cs35       1.0     0.761818     0.663150     0.088958    Uiso  ? Cs
   Cs36       1.0     0.763465     0.746310     0.759557    Uiso  ? Cs
   Cs37       1.0     0.238474     0.704806     0.925411    Uiso  ? Cs
   Cs38       1.0     0.238581     0.787931     0.592415    Uiso  ? Cs
   Cs39       1.0     0.262890     0.670439     0.562854    Uiso  ? Cs
   Cs40       1.0     0.263526     0.753665     0.230211    Uiso  ? Cs
   Cs41       1.0     0.739202     0.629256     0.725891    Uiso  ? Cs
   Cs42       1.0     0.740062     0.542817     0.054881    Uiso  ? Cs
   Cs43       1.0     0.730624     0.500160     0.733337    Uiso  ? Cs
   Cs44       1.0     0.761300     0.580574     0.419683    Uiso  ? Cs
   Cs45       1.0     0.242944     0.539807     0.581373    Uiso  ? Cs
   Cs46       1.0     0.237553     0.621841     0.255194    Uiso  ? Cs
   Cs47       1.0     0.262660     0.499971     0.229987    Uiso  ? Cs
   Cs48       1.0     0.265749     0.586238     0.891384    Uiso  ? Cs
   Pb1        1.0     0.251924     0.063727     0.251003    Uiso  ? Pb
   Pb2        1.0     0.250736     0.146418     0.582100    Uiso  ? Pb
   Pb3        1.0     0.745293     0.021815     0.082561    Uiso  ? Pb
   Pb4        1.0     0.749810     0.105109     0.415858    Uiso  ? Pb
   Pb5        1.0     0.249404     0.021888     0.586469    Uiso  ? Pb
   Pb6        1.0     0.250670     0.104118     0.914589    Uiso  ? Pb
   Pb7        1.0     0.752163     0.145759     0.079329    Uiso  ? Pb
   Pb8        1.0     0.751306     0.063122     0.749625    Uiso  ? Pb
   Pb9        1.0     0.250713     0.229240     0.911623    Uiso  ? Pb
   Pb10       1.0     0.249571     0.312198     0.243242    Uiso  ? Pb
   Pb11       1.0     0.749868     0.187833     0.746325    Uiso  ? Pb
   Pb12       1.0     0.751023     0.270775     0.077983    Uiso  ? Pb
   Pb13       1.0     0.250712     0.187632     0.245369    Uiso  ? Pb
   Pb14       1.0     0.250861     0.270751     0.577960    Uiso  ? Pb
   Pb15       1.0     0.750284     0.312395     0.744170    Uiso  ? Pb
   Pb16       1.0     0.750974     0.229262     0.411582    Uiso  ? Pb
   Pb17       1.0     0.249699     0.394899     0.573686    Uiso  ? Pb
   Pb18       1.0     0.243631     0.478109     0.906618    Uiso  ? Pb
   Pb19       1.0     0.750211     0.353579     0.407336    Uiso  ? Pb
   Pb20       1.0     0.751041     0.436310     0.738412    Uiso  ? Pb
   Pb21       1.0     0.251392     0.354198     0.909870    Uiso  ? Pb
   Pb22       1.0     0.251365     0.436889     0.239872    Uiso  ? Pb
   Pb23       1.0     0.749300     0.478102     0.402941    Uiso  ? Pb
   Pb24       1.0     0.749943     0.395868     0.074516    Uiso  ? Pb
   Pb25       1.0     0.251041     0.936310     0.251106    Uiso  ? Pb
   Pb26       1.0     0.250211     0.853579     0.582182    Uiso  ? Pb
   Pb27       1.0     0.743631     0.978109     0.082900    Uiso  ? Pb
   Pb28       1.0     0.749699     0.894899     0.415832    Uiso  ? Pb
   Pb29       1.0     0.249300     0.978102     0.586577    Uiso  ? Pb
   Pb30       1.0     0.249943     0.895868     0.915002    Uiso  ? Pb
   Pb31       1.0     0.751392     0.854198     0.079648    Uiso  ? Pb
   Pb32       1.0     0.751365     0.936889     0.749646    Uiso  ? Pb
   Pb33       1.0     0.251023     0.770775     0.911535    Uiso  ? Pb
   Pb34       1.0     0.249868     0.687833     0.243193    Uiso  ? Pb
   Pb35       1.0     0.749571     0.812198     0.746275    Uiso  ? Pb
   Pb36       1.0     0.750713     0.729240     0.077895    Uiso  ? Pb
   Pb37       1.0     0.250284     0.812395     0.245348    Uiso  ? Pb
   Pb38       1.0     0.250974     0.729262     0.577936    Uiso  ? Pb
   Pb39       1.0     0.750712     0.687632     0.744149    Uiso  ? Pb
   Pb40       1.0     0.750861     0.770751     0.411558    Uiso  ? Pb
   Pb41       1.0     0.249810     0.605109     0.573660    Uiso  ? Pb
   Pb42       1.0     0.245293     0.521815     0.906956    Uiso  ? Pb
   Pb43       1.0     0.750736     0.646418     0.407418    Uiso  ? Pb
   Pb44       1.0     0.751924     0.563727     0.738515    Uiso  ? Pb
   Pb45       1.0     0.252163     0.645759     0.910189    Uiso  ? Pb
   Pb46       1.0     0.251306     0.563122     0.239893    Uiso  ? Pb
   Pb47       1.0     0.749404     0.521888     0.403049    Uiso  ? Pb
   Pb48       1.0     0.750670     0.604118     0.074929    Uiso  ? Pb
